<?xml version="1.0" encoding="UTF-8"?>

<!-- generated on 2026-04-27 00:13:54.070123 by Eclipse SUMO randomTrips.py v1.26.0
<configuration>
    <net-file value="manhattan.net.xml"/>
    <route-file value="background.rou.xml"/>
    <period value="1.0"/>
</configuration>
-->

<!-- generated on 2026-04-27T00:13:53.623765+00:00 by Eclipse SUMO duarouter 1.26.0
<duarouterConfiguration xmlns:xsi="http://www.w3.org/2001/XMLSchema-instance" xsi:noNamespaceSchemaLocation="http://sumo.dlr.de/xsd/duarouterConfiguration.xsd">

    <input>
        <net-file value="manhattan.net.xml"/>
        <route-files value="trips.trips.xml"/>
    </input>

    <output>
        <output-file value="background.rou.xml"/>
        <alternatives-output value="NUL"/>
    </output>

    <time>
        <begin value="0"/>
        <end value="3600.0"/>
    </time>

    <report>
        <no-warnings value="true"/>
        <ignore-errors value="true"/>
        <no-step-log value="true"/>
    </report>

</duarouterConfiguration>
-->

<routes xmlns:xsi="http://www.w3.org/2001/XMLSchema-instance" xsi:noNamespaceSchemaLocation="http://sumo.dlr.de/xsd/routes_file.xsd">
    <vehicle id="0" type="Car" depart="0.00">
        <route edges="E19 E20 -E35 E53 E52 -E34 -E10"/>
    </vehicle>
    <vehicle id="1" type="Car" depart="2.00">
        <route edges="-E29 E3 E4 E25 E14 -E24"/>
    </vehicle>
    <vehicle id="2" type="Car" depart="4.00">
        <route edges="E25 E14 E15 E16 E17 E52 E55 E54 E35 E21"/>
    </vehicle>
    <vehicle id="3" type="Car" depart="6.00">
        <route edges="E37 E49 E12 E27 -E15 -E14"/>
    </vehicle>
    <vehicle id="4" type="Car" depart="8.00">
        <route edges="-E39 -E38 E51 -E11 -E10"/>
    </vehicle>
    <vehicle id="5" type="Car" depart="10.00">
        <route edges="-E24 -E23 -E22 -E21 -E20 -E19 -E31 -E9 -E30 E0"/>
    </vehicle>
    <vehicle id="6" type="Car" depart="12.00">
        <route edges="-E10 E31 -E18 E54 E53 -E17 -E16 E28 -E22"/>
    </vehicle>
    <vehicle id="7" type="Car" depart="14.00">
        <route edges="E19 E20 -E35 E53 E52 -E34 E11"/>
    </vehicle>
    <vehicle id="8" type="Car" depart="16.00">
        <route edges="-E24 -E23 -E28 -E27 E13 E14 E15"/>
    </vehicle>
    <vehicle id="9" type="Car" depart="18.00">
        <route edges="E30 -E8 E42 E41 -E7 E39 -E1 -E0"/>
    </vehicle>
    <vehicle id="10" type="Car" depart="20.00">
        <route edges="E30 E9 E31 E19 E20 E21 E22"/>
    </vehicle>
    <vehicle id="11" type="Car" depart="22.00">
        <route edges="-E33 E41 -E7 -E6 E46 E45 E44 -E29 -E2"/>
    </vehicle>
    <vehicle id="12" type="Car" depart="24.00">
        <route edges="E6 E7 E40 -E32"/>
    </vehicle>
    <vehicle id="13" type="Car" depart="26.00">
        <route edges="-E15"/>
    </vehicle>
    <vehicle id="14" type="Car" depart="28.00">
        <route edges="E33 E11 E50 E49 E12 E27 E16"/>
    </vehicle>
    <vehicle id="15" type="Car" depart="30.00">
        <route edges="E30 -E8 E42 E41 -E7 -E6 E46 E45 -E5 E25"/>
    </vehicle>
    <vehicle id="16" type="Car" depart="32.00">
        <route edges="E10 E11 E50 E49 E48 E38 E7"/>
    </vehicle>
    <vehicle id="17" type="Car" depart="34.00">
        <route edges="-E36 -E21 -E35 E53 -E17 E37 E49 E12"/>
    </vehicle>
    <vehicle id="18" type="Car" depart="36.00">
        <route edges="E32 E43 E42 E33 E11 E50 -E37 E17"/>
    </vehicle>
    <vehicle id="19" type="Car" depart="38.00">
        <route edges="E34 E55 E54 E53 -E17 -E16 -E27 E13 E14"/>
    </vehicle>
    <vehicle id="20" type="Car" depart="40.00">
        <route edges="E23 E24 -E14 -E13 -E12 E48 E51 -E11"/>
    </vehicle>
    <vehicle id="21" type="Car" depart="42.00">
        <route edges="-E25 -E4 -E3"/>
    </vehicle>
    <vehicle id="22" type="Car" depart="44.00">
        <route edges="-E14 -E25"/>
    </vehicle>
    <vehicle id="23" type="Car" depart="46.00">
        <route edges="-E16 -E27 -E26 E45 E44 -E29"/>
    </vehicle>
    <vehicle id="24" type="Car" depart="48.00">
        <route edges="E18 E19 E20 -E35"/>
    </vehicle>
    <vehicle id="25" type="Car" depart="50.00">
        <route edges="-E35 E53 -E17 -E16 -E15 -E24 -E23"/>
    </vehicle>
    <vehicle id="26" type="Car" depart="52.00">
        <route edges="-E28 -E27 -E26 E45 E44 -E29 E3 E4"/>
    </vehicle>
    <vehicle id="27" type="Car" depart="54.00">
        <route edges="E19 E20 E21 E22 -E28 E16"/>
    </vehicle>
    <vehicle id="28" type="Car" depart="56.00">
        <route edges="-E20 -E19 -E31 E10 -E33 E41 -E7 -E6 E46 E45 -E5 E25"/>
    </vehicle>
    <vehicle id="29" type="Car" depart="58.00">
        <route edges="-E20 -E19 -E31 E10 E11 E50 -E37 -E36"/>
    </vehicle>
    <vehicle id="30" type="Car" depart="60.00">
        <route edges="E9 E31 E19"/>
    </vehicle>
    <vehicle id="31" type="Car" depart="62.00">
        <route edges="E12 E27 E16 E17 E52 E55 E54 E35 E21"/>
    </vehicle>
    <vehicle id="32" type="Car" depart="64.00">
        <route edges="E33 E11 E50 E49 E48 E38 E39 E2 E29"/>
    </vehicle>
    <vehicle id="33" type="Car" depart="66.00">
        <route edges="-E25 E5 E44 E47 E6 -E38 E51 -E11 -E10"/>
    </vehicle>
    <vehicle id="34" type="Car" depart="68.00">
        <route edges="-E31 E10 E11 E50 -E37 -E36 E22 -E28"/>
    </vehicle>
    <vehicle id="35" type="Car" depart="70.00">
        <route edges="-E23 -E28 -E27 E13 -E25 E5"/>
    </vehicle>
    <vehicle id="36" type="Car" depart="72.00">
        <route edges="E36 E17 E52 E55 E18 -E31"/>
    </vehicle>
    <vehicle id="37" type="Car" depart="74.00">
        <route edges="E2 E29 E47 E6 -E38 E51 E50 -E37"/>
    </vehicle>
    <vehicle id="38" type="Car" depart="76.00">
        <route edges="E39 -E1 E32 E43 E42 E41 -E7 -E6"/>
    </vehicle>
    <vehicle id="39" type="Car" depart="78.00">
        <route edges="-E28 -E27 -E26"/>
    </vehicle>
    <vehicle id="40" type="Car" depart="80.00">
        <route edges="E12 E13 E14 -E24 -E23 -E28"/>
    </vehicle>
    <vehicle id="41" type="Car" depart="82.00">
        <route edges="E14 E15 E16 E37"/>
    </vehicle>
    <vehicle id="42" type="Car" depart="84.00">
        <route edges="-E37 -E16 -E15 -E24"/>
    </vehicle>
    <vehicle id="43" type="Car" depart="86.00">
        <route edges="E9 E10 -E33 E41 E40 E43 E8 -E30 E0"/>
    </vehicle>
    <vehicle id="44" type="Car" depart="88.00">
        <route edges="-E15 -E14 -E13 -E12 E48 E51 -E11"/>
    </vehicle>
    <vehicle id="45" type="Car" depart="90.00">
        <route edges="-E16 E28 -E22 -E21 -E35 E53 E52 E55 E18"/>
    </vehicle>
    <vehicle id="46" type="Car" depart="92.00">
        <route edges="E3 E4 E5 E44 -E29 -E2 -E39"/>
    </vehicle>
    <vehicle id="47" type="Car" depart="94.00">
        <route edges="-E13 E27 E16 -E36"/>
    </vehicle>
    <vehicle id="48" type="Car" depart="96.00">
        <route edges="E9 E10"/>
    </vehicle>
    <vehicle id="49" type="Car" depart="98.00">
        <route edges="E7 E40 E43 E42 E33 E34"/>
    </vehicle>
    <vehicle id="50" type="Car" depart="100.00">
        <route edges="-E0 E30 E9 E31 E19 E20 E21 E22 E23 E24"/>
    </vehicle>
    <vehicle id="51" type="Car" depart="102.00">
        <route edges="E21 E36 E17 E52 E55 E18 -E31 E10"/>
    </vehicle>
    <vehicle id="52" type="Car" depart="104.00">
        <route edges="-E28 E16 E17 E52 E55 E18 E19"/>
    </vehicle>
    <vehicle id="53" type="Car" depart="106.00">
        <route edges="-E16 -E15 -E14 -E25 -E4"/>
    </vehicle>
    <vehicle id="54" type="Car" depart="108.00">
        <route edges="-E6 E46 E45 E44 E47 E6"/>
    </vehicle>
    <vehicle id="55" type="Car" depart="110.00">
        <route edges="E36 E37 E49 E48 E51 E50 -E37 -E36 E22 -E28"/>
    </vehicle>
    <vehicle id="56" type="Car" depart="112.00">
        <route edges="E0 E1 -E39 -E38 E51 E50 -E37 -E36 -E21"/>
    </vehicle>
    <vehicle id="57" type="Car" depart="114.00">
        <route edges="E39 -E1 E32 E43 E42 E33 E34 E55 E54 E35"/>
    </vehicle>
    <vehicle id="58" type="Car" depart="116.00">
        <route edges="-E3 -E2 -E1 -E0 E30 E9 E31 E19"/>
    </vehicle>
    <vehicle id="59" type="Car" depart="118.00">
        <route edges="E16 E37 E49 E12 -E26 E45 E44 -E29 -E2"/>
    </vehicle>
    <vehicle id="60" type="Car" depart="120.00">
        <route edges="E28 -E22 -E21 -E35 E53 E52 -E34 E11"/>
    </vehicle>
    <vehicle id="61" type="Car" depart="122.00">
        <route edges="E29 E47 E6 E7 E40 E43 E8 E9 E10"/>
    </vehicle>
    <vehicle id="62" type="Car" depart="124.00">
        <route edges="-E0 E30 E9 E10 E34 E55 E18 -E31"/>
    </vehicle>
    <vehicle id="63" type="Car" depart="126.00">
        <route edges="-E1 E32 E43 E42 E41 -E7 E39 E2 E3 E4"/>
    </vehicle>
    <vehicle id="64" type="Car" depart="128.00">
        <route edges="E36 E37 E49 E48 E38 E39 -E1 E32"/>
    </vehicle>
    <vehicle id="65" type="Car" depart="130.00">
        <route edges="-E30 E0 E1 -E39 -E6 E46 E26 -E12"/>
    </vehicle>
    <vehicle id="66" type="Car" depart="132.00">
        <route edges="E36 -E16 -E15 -E14 -E25 E5"/>
    </vehicle>
    <vehicle id="67" type="Car" depart="134.00">
        <route edges="-E14 -E13 -E12 E48 E51 -E11 -E10 -E9 -E8"/>
    </vehicle>
    <vehicle id="68" type="Car" depart="136.00">
        <route edges="-E13 E27"/>
    </vehicle>
    <vehicle id="69" type="Car" depart="138.00">
        <route edges="E28 -E22 -E21 -E20 -E19 -E18"/>
    </vehicle>
    <vehicle id="70" type="Car" depart="140.00">
        <route edges="-E8 E42 E33 E11"/>
    </vehicle>
    <vehicle id="71" type="Car" depart="142.00">
        <route edges="-E28 E16 E17 E52 E55 E54 E35"/>
    </vehicle>
    <vehicle id="72" type="Car" depart="144.00">
        <route edges="-E39 -E6 E46 E26 E27 -E15 -E24 -E23"/>
    </vehicle>
    <vehicle id="73" type="Car" depart="146.00">
        <route edges="E11 E50 E49 E12 -E26 E45 -E5 E25"/>
    </vehicle>
    <vehicle id="74" type="Car" depart="148.00">
        <route edges="-E23 -E22 -E21 -E20 -E19 -E31 -E9 -E30"/>
    </vehicle>
    <vehicle id="75" type="Car" depart="150.00">
        <route edges="E9 E31 E19"/>
    </vehicle>
    <vehicle id="76" type="Car" depart="152.00">
        <route edges="-E5 E25 -E13 -E12 E48 E38 E7 E40 -E32 E1"/>
    </vehicle>
    <vehicle id="77" type="Car" depart="154.00">
        <route edges="-E17 -E16 -E15 -E24"/>
    </vehicle>
    <vehicle id="78" type="Car" depart="156.00">
        <route edges="-E33 E41 -E7 -E6 E46 E45 -E5 E25 E14 E15"/>
    </vehicle>
    <vehicle id="79" type="Car" depart="158.00">
        <route edges="-E25 E5 E44 E47 E46 E26 E27 -E15 -E24"/>
    </vehicle>
    <vehicle id="80" type="Car" depart="160.00">
        <route edges="-E13 E27 E16 E17 E52 E55 E18"/>
    </vehicle>
    <vehicle id="81" type="Car" depart="162.00">
        <route edges="-E25 E5 E44 E47 E46 E26 -E12 E48 E38"/>
    </vehicle>
    <vehicle id="82" type="Car" depart="164.00">
        <route edges="E34 E55 E54 E53 -E17 -E16 -E15 -E14 -E13"/>
    </vehicle>
    <vehicle id="83" type="Car" depart="166.00">
        <route edges="-E26 E45 E44 E47 E6 -E38 E51 -E11 -E10 E31 E19 E20"/>
    </vehicle>
    <vehicle id="84" type="Car" depart="168.00">
        <route edges="-E24 -E23 -E22 -E21 -E20 -E19 -E18"/>
    </vehicle>
    <vehicle id="85" type="Car" depart="170.00">
        <route edges="E4 E5 E44 E47 E46 E26 E13"/>
    </vehicle>
    <vehicle id="86" type="Car" depart="172.00">
        <route edges="-E7 E39 E2 E29"/>
    </vehicle>
    <vehicle id="87" type="Car" depart="174.00">
        <route edges="E30 E9 E10 E11 E50 -E37 -E16 E28 -E22"/>
    </vehicle>
    <vehicle id="88" type="Car" depart="176.00">
        <route edges="-E15 -E14 -E25 -E4"/>
    </vehicle>
    <vehicle id="89" type="Car" depart="178.00">
        <route edges="-E39 E7 E40 E43 E42 E41 -E7"/>
    </vehicle>
    <vehicle id="90" type="Car" depart="180.00">
        <route edges="E25 E14 E15 E16 E17 E52 E55 E18 E19 E20"/>
    </vehicle>
    <vehicle id="91" type="Car" depart="182.00">
        <route edges="E8 E9 E10 E11 E50 -E37 -E16 -E15"/>
    </vehicle>
    <vehicle id="92" type="Car" depart="184.00">
        <route edges="-E38 E51 -E11 -E33"/>
    </vehicle>
    <vehicle id="93" type="Car" depart="186.00">
        <route edges="E34 E55 E54 E53 -E17 -E16 -E27 -E26"/>
    </vehicle>
    <vehicle id="94" type="Car" depart="188.00">
        <route edges="-E22 E36 -E16 -E27 -E26 E45 -E5"/>
    </vehicle>
    <vehicle id="95" type="Car" depart="190.00">
        <route edges="-E39 -E6 E46 E45 E44 -E29"/>
    </vehicle>
    <vehicle id="96" type="Car" depart="192.00">
        <route edges="-E26 E45 E44 E47 E6 E39"/>
    </vehicle>
    <vehicle id="97" type="Car" depart="194.00">
        <route edges="-E5 E25 -E13 -E12 E48 E51 -E11 E34"/>
    </vehicle>
    <vehicle id="98" type="Car" depart="196.00">
        <route edges="E12 -E26 E45 E44 E47 E46 E26 -E12"/>
    </vehicle>
    <vehicle id="99" type="Car" depart="198.00">
        <route edges="E9 E10 -E33 E41 E40 E43 E8 -E30 E0 E32"/>
    </vehicle>
    <vehicle id="100" type="Car" depart="200.00">
        <route edges="E7 E40 -E32 E1 E2 E3 E4"/>
    </vehicle>
    <vehicle id="101" type="Car" depart="202.00">
        <route edges="E33 E34 E55 E54 E35 -E20"/>
    </vehicle>
    <vehicle id="102" type="Car" depart="204.00">
        <route edges="-E8 E42 E41 -E7 -E6 E46 E26 E27 -E15 -E24"/>
    </vehicle>
    <vehicle id="103" type="Car" depart="206.00">
        <route edges="-E38 E51 E50 E49 E48 E38 -E6 E46 E26 -E12"/>
    </vehicle>
    <vehicle id="104" type="Car" depart="208.00">
        <route edges="-E36 -E21 -E35 E53 E52 -E34 -E33 E41 E40 E43 E8"/>
    </vehicle>
    <vehicle id="105" type="Car" depart="210.00">
        <route edges="-E28 -E27 -E12 E48 E38 E39 E2 E29"/>
    </vehicle>
    <vehicle id="106" type="Car" depart="212.00">
        <route edges="-E6 E46 E45 E44 -E29 -E2 -E39"/>
    </vehicle>
    <vehicle id="107" type="Car" depart="214.00">
        <route edges="E6 E7 E40 E43 E8 E9"/>
    </vehicle>
    <vehicle id="108" type="Car" depart="216.00">
        <route edges="E12 E27 E28 E23 E24"/>
    </vehicle>
    <vehicle id="109" type="Car" depart="218.00">
        <route edges="-E2 -E39 -E6 E46 E45 -E5 -E4 -E3"/>
    </vehicle>
    <vehicle id="110" type="Car" depart="220.00">
        <route edges="E7 E40 E43 E42 E41 -E7 -E6 E46 E45 -E5 E25 E14"/>
    </vehicle>
    <vehicle id="111" type="Car" depart="222.00">
        <route edges="E11 E50 E49 E48 E38 -E6 E46 E26"/>
    </vehicle>
    <vehicle id="112" type="Car" depart="224.00">
        <route edges="-E12 E48 E51 E50 E49 E12 E13 E14"/>
    </vehicle>
    <vehicle id="113" type="Car" depart="226.00">
        <route edges="E0 E32 E43 E42 E33 E34"/>
    </vehicle>
    <vehicle id="114" type="Car" depart="228.00">
        <route edges="-E2 -E39 -E6 E46 E45 E44 E47 E6"/>
    </vehicle>
    <vehicle id="115" type="Car" depart="230.00">
        <route edges="-E14 -E13 E27 E28 -E22 -E21"/>
    </vehicle>
    <vehicle id="116" type="Car" depart="232.00">
        <route edges="E15 E16 E17 E52 E55 E54 E35 E21"/>
    </vehicle>
    <vehicle id="117" type="Car" depart="234.00">
        <route edges="-E25 E5 E44 E47 E6 -E38 E51 -E11 E34 E55 E54 E53 -E17"/>
    </vehicle>
    <vehicle id="118" type="Car" depart="236.00">
        <route edges="E37 E49 E12 -E26"/>
    </vehicle>
    <vehicle id="119" type="Car" depart="238.00">
        <route edges="E15 E16 E17"/>
    </vehicle>
    <vehicle id="120" type="Car" depart="240.00">
        <route edges="-E39 -E6 E46 E45 -E5 E25 E14"/>
    </vehicle>
    <vehicle id="121" type="Car" depart="242.00">
        <route edges="E1 E2 E3 E4"/>
    </vehicle>
    <vehicle id="122" type="Car" depart="244.00">
        <route edges="-E23 -E22 E36 -E16 E28 E23 E24"/>
    </vehicle>
    <vehicle id="123" type="Car" depart="246.00">
        <route edges="-E26 E45 E44 E47 E6 -E38 E51 E50 -E37"/>
    </vehicle>
    <vehicle id="124" type="Car" depart="248.00">
        <route edges="E20 E21 E22 E23 E24 -E14 -E25 -E4 -E3"/>
    </vehicle>
    <vehicle id="125" type="Car" depart="250.00">
        <route edges="-E31 E10 E11 E50 E49 E12 E27"/>
    </vehicle>
    <vehicle id="126" type="Car" depart="252.00">
        <route edges="-E13 -E12 E48 E38 -E6"/>
    </vehicle>
    <vehicle id="127" type="Car" depart="254.00">
        <route edges="E9"/>
    </vehicle>
    <vehicle id="128" type="Car" depart="256.00">
        <route edges="-E13 E27 -E15 -E24"/>
    </vehicle>
    <vehicle id="129" type="Car" depart="258.00">
        <route edges="-E28 -E27 -E26 E45 E44 -E29 E3 E4"/>
    </vehicle>
    <vehicle id="130" type="Car" depart="260.00">
        <route edges="E36"/>
    </vehicle>
    <vehicle id="131" type="Car" depart="262.00">
        <route edges="-E35 E53 -E17 -E16 -E27 -E26 E45 E44 -E29 -E2"/>
    </vehicle>
    <vehicle id="132" type="Car" depart="264.00">
        <route edges="E32 E43 E42 E33 E11 E50 -E37 -E36 E22 E23"/>
    </vehicle>
    <vehicle id="133" type="Car" depart="266.00">
        <route edges="E16 E17 E52 -E34 -E33 E41 E40 E43 E8"/>
    </vehicle>
    <vehicle id="134" type="Car" depart="268.00">
        <route edges="E2 E29 E47 E6 E39 -E1 -E0"/>
    </vehicle>
    <vehicle id="135" type="Car" depart="270.00">
        <route edges="E31 -E18 E54 E53 -E17 -E16 -E15 -E14 -E25 -E4 -E3"/>
    </vehicle>
    <vehicle id="136" type="Car" depart="272.00">
        <route edges="E20 E21 E22 E23 E24 -E14 -E25 E5"/>
    </vehicle>
    <vehicle id="137" type="Car" depart="274.00">
        <route edges="-E18 E54 E53 -E17"/>
    </vehicle>
    <vehicle id="138" type="Car" depart="276.00">
        <route edges="-E16 -E27 -E12 E48 E51 E50 E49 E12"/>
    </vehicle>
    <vehicle id="139" type="Car" depart="278.00">
        <route edges="-E28 E16"/>
    </vehicle>
    <vehicle id="140" type="Car" depart="280.00">
        <route edges="E24 E15 -E27 E13 E14 -E24 -E23"/>
    </vehicle>
    <vehicle id="141" type="Car" depart="282.00">
        <route edges="E18 E19 E20 E21 E22 -E28"/>
    </vehicle>
    <vehicle id="142" type="Car" depart="284.00">
        <route edges="-E9 -E8 E42 E33 E11 E50 E49 E48 E38"/>
    </vehicle>
    <vehicle id="143" type="Car" depart="286.00">
        <route edges="E33 E34 E55 E54 E53 -E17 -E16 -E15"/>
    </vehicle>
    <vehicle id="144" type="Car" depart="288.00">
        <route edges="-E39 -E6 E46 E45 E44 -E29"/>
    </vehicle>
    <vehicle id="145" type="Car" depart="290.00">
        <route edges="-E0 E30 E9 E10 E11 E50 -E37 -E16 E28"/>
    </vehicle>
    <vehicle id="146" type="Car" depart="292.00">
        <route edges="E18 E19 E20 E21 E22 -E28 -E27"/>
    </vehicle>
    <vehicle id="147" type="Car" depart="294.00">
        <route edges="E26 -E12 E48 E51 E50 E49 E12"/>
    </vehicle>
    <vehicle id="148" type="Car" depart="296.00">
        <route edges="-E4 -E3 -E2 -E1 -E0"/>
    </vehicle>
    <vehicle id="149" type="Car" depart="298.00">
        <route edges="-E14 -E13 E27 E28 -E22 E36"/>
    </vehicle>
    <vehicle id="150" type="Car" depart="300.00">
        <route edges="E38 E7 E40 E43 E42 E33 E11"/>
    </vehicle>
    <vehicle id="151" type="Car" depart="302.00">
        <route edges="E32 E43 E42 E41 -E7 -E6 E46 E45 -E5 E25 E14"/>
    </vehicle>
    <vehicle id="152" type="Car" depart="304.00">
        <route edges="-E19 -E18"/>
    </vehicle>
    <vehicle id="153" type="Car" depart="306.00">
        <route edges="-E30 E0 E32 E43 E42 E33 E34 E55 E54 E53 -E17 E37"/>
    </vehicle>
    <vehicle id="154" type="Car" depart="308.00">
        <route edges="E3 E4 E25 -E13 -E12 E48 E51 -E11 E34"/>
    </vehicle>
    <vehicle id="155" type="Car" depart="310.00">
        <route edges="E37 E49 E12 E13 E14 -E24 -E23"/>
    </vehicle>
    <vehicle id="156" type="Car" depart="312.00">
        <route edges="-E26 E45 E44 E47 E6 -E38 E51 E50 -E37 -E16"/>
    </vehicle>
    <vehicle id="157" type="Car" depart="314.00">
        <route edges="E29 E47 E46 E26 E27 E28 -E22 E36"/>
    </vehicle>
    <vehicle id="158" type="Car" depart="316.00">
        <route edges="-E38 E51 E50 -E37 E17"/>
    </vehicle>
    <vehicle id="159" type="Car" depart="318.00">
        <route edges="-E2 -E39 -E6 E46 E45 E44 -E29 E3 E4"/>
    </vehicle>
    <vehicle id="160" type="Car" depart="320.00">
        <route edges="E35 -E20 -E19 -E31 E10 -E33 E41 E40 E43 E8"/>
    </vehicle>
    <vehicle id="161" type="Car" depart="322.00">
        <route edges="E30 E9 E31 E19 E20 E21 E36"/>
    </vehicle>
    <vehicle id="162" type="Car" depart="324.00">
        <route edges="-E1 E32 E43 E42 E41 -E7 -E6 E46 E45 -E5 E25"/>
    </vehicle>
    <vehicle id="163" type="Car" depart="326.00">
        <route edges="-E32 E1 E2 E3 E4"/>
    </vehicle>
    <vehicle id="164" type="Car" depart="328.00">
        <route edges="E30 E9 E31 -E18 E54 E35"/>
    </vehicle>
    <vehicle id="165" type="Car" depart="330.00">
        <route edges="E30 E9 E31 E19 E20 E21 E22 -E28"/>
    </vehicle>
    <vehicle id="166" type="Car" depart="332.00">
        <route edges="E29 E47 E6 -E38 E51 E50 -E37 -E16"/>
    </vehicle>
    <vehicle id="167" type="Car" depart="334.00">
        <route edges="E35 -E20 -E19 -E31 E10 E34"/>
    </vehicle>
    <vehicle id="168" type="Car" depart="336.00">
        <route edges="-E24 -E23 -E22 -E21 -E35 E53 E52 -E34 -E10 E31"/>
    </vehicle>
    <vehicle id="169" type="Car" depart="338.00">
        <route edges="-E6 E46 E45 E44 E47 E6 E7 E40 E43 E8 -E30"/>
    </vehicle>
    <vehicle id="170" type="Car" depart="340.00">
        <route edges="E3 E4 E5 E44 E47 E46 E26 E13 -E25"/>
    </vehicle>
    <vehicle id="171" type="Car" depart="342.00">
        <route edges="-E1 E32 E43 E42 E41 -E7 -E6 E46 E26 E27 E28 -E22"/>
    </vehicle>
    <vehicle id="172" type="Car" depart="344.00">
        <route edges="-E32 E1 -E39 -E38 E51 -E11 E34 E55 E54 E35"/>
    </vehicle>
    <vehicle id="173" type="Car" depart="346.00">
        <route edges="E7 E40 E43 E42 E41 -E7 -E6 E46 E45 E44 -E29"/>
    </vehicle>
    <vehicle id="174" type="Car" depart="348.00">
        <route edges="E19 E20 -E35 E53 E52 -E34 E11 E50 -E37"/>
    </vehicle>
    <vehicle id="175" type="Car" depart="350.00">
        <route edges="E8 E9 E10"/>
    </vehicle>
    <vehicle id="176" type="Car" depart="352.00">
        <route edges="E5 E44 E47 E6 -E38 E51 -E11 E34 E55 E54 E53 -E17"/>
    </vehicle>
    <vehicle id="177" type="Car" depart="354.00">
        <route edges="E7 E40 E43 E42 E33 E11 E50 -E37 -E36 -E21"/>
    </vehicle>
    <vehicle id="178" type="Car" depart="356.00">
        <route edges="E7 E40 E43 E42 E33 E11 E50 -E37 -E36 E22 -E28"/>
    </vehicle>
    <vehicle id="179" type="Car" depart="358.00">
        <route edges="-E16 -E15 -E14 -E25 -E4"/>
    </vehicle>
    <vehicle id="180" type="Car" depart="360.00">
        <route edges="E25 E14 E15 E16 E17 E52 E55 E18 -E31"/>
    </vehicle>
    <vehicle id="181" type="Car" depart="362.00">
        <route edges="E16 E17 E52 -E34 -E10 -E9 -E30 E0"/>
    </vehicle>
    <vehicle id="182" type="Car" depart="364.00">
        <route edges="-E36 E22 -E28 -E27 E13 E14"/>
    </vehicle>
    <vehicle id="183" type="Car" depart="366.00">
        <route edges="-E27 -E26 E45 E44 E47 E46 E26 E27 E28 E23"/>
    </vehicle>
    <vehicle id="184" type="Car" depart="368.00">
        <route edges="-E0 E30 -E8 E42 E41 -E7 E39 E2 E3 E4"/>
    </vehicle>
    <vehicle id="185" type="Car" depart="370.00">
        <route edges="E11 E50 -E37 -E36 E22 E23 E24"/>
    </vehicle>
    <vehicle id="186" type="Car" depart="372.00">
        <route edges="E26 -E12 E48 E51 -E11 -E10 E31 E19 E20"/>
    </vehicle>
    <vehicle id="187" type="Car" depart="374.00">
        <route edges="-E35 E53 -E17 -E16 -E15 -E14 -E13"/>
    </vehicle>
    <vehicle id="188" type="Car" depart="376.00">
        <route edges="E20 -E35 E53 E52 -E34 -E33 E41 E40 -E32"/>
    </vehicle>
    <vehicle id="189" type="Car" depart="378.00">
        <route edges="-E31 -E9 -E8 E42 E33"/>
    </vehicle>
    <vehicle id="190" type="Car" depart="380.00">
        <route edges="E24 E15 E16 E17 E52 -E34 -E10 -E9 -E30"/>
    </vehicle>
    <vehicle id="191" type="Car" depart="382.00">
        <route edges="-E30 E0 E1 -E39 -E38"/>
    </vehicle>
    <vehicle id="192" type="Car" depart="384.00">
        <route edges="-E38 E51 E50 E49 E12 E13 -E25 -E4 -E3"/>
    </vehicle>
    <vehicle id="193" type="Car" depart="386.00">
        <route edges="-E18 E54 E53 E52 -E34 -E33 E41 E40 -E32 E1 -E39"/>
    </vehicle>
    <vehicle id="194" type="Car" depart="388.00">
        <route edges="E5 E44 E47 E6 -E38 E51 -E11 E34 E55 E54 E35 E21"/>
    </vehicle>
    <vehicle id="195" type="Car" depart="390.00">
        <route edges="E38 -E6 E46 E26 E27 E16 E17"/>
    </vehicle>
    <vehicle id="196" type="Car" depart="392.00">
        <route edges="-E30 E0 E32 E43 E42 E33 E11"/>
    </vehicle>
    <vehicle id="197" type="Car" depart="394.00">
        <route edges="-E0 E30 -E8 E42 E41 -E7 -E6 E46 E45 E44 -E29"/>
    </vehicle>
    <vehicle id="198" type="Car" depart="396.00">
        <route edges="-E4 -E3 E29 E47 E46 E45 -E5 E25 E14"/>
    </vehicle>
    <vehicle id="199" type="Car" depart="398.00">
        <route edges="E2 E29 E47 E6 E7 E40 E43 E42 E41 -E7"/>
    </vehicle>
    <vehicle id="200" type="Car" depart="400.00">
        <route edges="-E5 E25 E14 -E24"/>
    </vehicle>
    <vehicle id="201" type="Car" depart="402.00">
        <route edges="-E7 -E38 E51 E50 E49 E48 E38"/>
    </vehicle>
    <vehicle id="202" type="Car" depart="404.00">
        <route edges="E3 E4 E25 E14 -E24 -E23 -E22 -E21 -E20"/>
    </vehicle>
    <vehicle id="203" type="Car" depart="406.00">
        <route edges="-E14 -E25 E5 E44 E47 E6 E7 E40 -E32 E1"/>
    </vehicle>
    <vehicle id="204" type="Car" depart="408.00">
        <route edges="E18 -E31 E10 -E33 E41 E40 -E32"/>
    </vehicle>
    <vehicle id="205" type="Car" depart="410.00">
        <route edges="E31 -E18 E54 E53 -E17 E37 E49 E12 E27"/>
    </vehicle>
    <vehicle id="206" type="Car" depart="412.00">
        <route edges="E20 E21 E36 -E16 -E15 -E24"/>
    </vehicle>
    <vehicle id="207" type="Car" depart="414.00">
        <route edges="-E22 E36 E37 E49 E48 E38 E39 -E1"/>
    </vehicle>
    <vehicle id="208" type="Car" depart="416.00">
        <route edges="-E26 E45 E44 -E29 -E2 -E1 -E0 E30 -E8"/>
    </vehicle>
    <vehicle id="209" type="Car" depart="418.00">
        <route edges="E33 E11 E50 E49 E12 -E26 E45 -E5 E25 -E13"/>
    </vehicle>
    <vehicle id="210" type="Car" depart="420.00">
        <route edges="-E39 -E38 E51 -E11 E34 E55 E18"/>
    </vehicle>
    <vehicle id="211" type="Car" depart="422.00">
        <route edges="-E22 E36 E37 E49 E48 E51 E50 -E37 -E36 E22"/>
    </vehicle>
    <vehicle id="212" type="Car" depart="424.00">
        <route edges="-E9 -E8 E42 E33 E11 E50 E49 E12 -E26"/>
    </vehicle>
    <vehicle id="213" type="Car" depart="426.00">
        <route edges="E2 E29 E47 E6 E39 -E1 -E0"/>
    </vehicle>
    <vehicle id="214" type="Car" depart="428.00">
        <route edges="E27 E28"/>
    </vehicle>
    <vehicle id="215" type="Car" depart="430.00">
        <route edges="-E16 -E15 -E14 -E25 -E4"/>
    </vehicle>
    <vehicle id="216" type="Car" depart="432.00">
        <route edges="-E21 -E35 E53 -E17 -E16 -E27 -E26 E45 E44 E47 E6"/>
    </vehicle>
    <vehicle id="217" type="Car" depart="434.00">
        <route edges="E1 -E39 -E6 E46 E26 -E12"/>
    </vehicle>
    <vehicle id="218" type="Car" depart="436.00">
        <route edges="-E26 E45 E44 E47 E6 E7 E40 E43 E42 E33"/>
    </vehicle>
    <vehicle id="219" type="Car" depart="438.00">
        <route edges="-E6 E46 E45 E44 -E29 -E2 -E1 -E0 E30"/>
    </vehicle>
    <vehicle id="220" type="Car" depart="440.00">
        <route edges="E20 -E35 E53 E52 -E34 -E33 E41 E40 E43 E8 E9"/>
    </vehicle>
    <vehicle id="221" type="Car" depart="442.00">
        <route edges="E15 -E27 -E26 E45 E44 E47 E6"/>
    </vehicle>
    <vehicle id="222" type="Car" depart="444.00">
        <route edges="E37 E49 E48 E51 E50 -E37 E17"/>
    </vehicle>
    <vehicle id="223" type="Car" depart="446.00">
        <route edges="E24 E15 E16 E17 E52 -E34 -E10 -E9 -E30 E0"/>
    </vehicle>
    <vehicle id="224" type="Car" depart="448.00">
        <route edges="E32 E43 E42 E33 E11"/>
    </vehicle>
    <vehicle id="225" type="Car" depart="450.00">
        <route edges="E37 E49 E48 E38 -E6 E46 E26"/>
    </vehicle>
    <vehicle id="226" type="Car" depart="452.00">
        <route edges="-E7 -E38 E51 E50 -E37 -E16 -E27"/>
    </vehicle>
    <vehicle id="227" type="Car" depart="454.00">
        <route edges="-E26 E45 E44 E47 E6 -E38 E51 -E11 -E10 E31 E19"/>
    </vehicle>
    <vehicle id="228" type="Car" depart="456.00">
        <route edges="E28 -E22 E36 E37 E49 E48 E38 E7 E40 -E32 E1"/>
    </vehicle>
    <vehicle id="229" type="Car" depart="458.00">
        <route edges="E18 E19 E20 E21 E22 -E28"/>
    </vehicle>
    <vehicle id="230" type="Car" depart="460.00">
        <route edges="-E14 -E25 E5 E44 -E29"/>
    </vehicle>
    <vehicle id="231" type="Car" depart="462.00">
        <route edges="-E28 E16 E17 E52 E55 E18 -E31"/>
    </vehicle>
    <vehicle id="232" type="Car" depart="464.00">
        <route edges="E11 E50 -E37 -E36 -E21 -E20 -E19"/>
    </vehicle>
    <vehicle id="233" type="Car" depart="466.00">
        <route edges="-E25 E5 E44 E47 E46 E26 E27 E16 -E36 E22"/>
    </vehicle>
    <vehicle id="234" type="Car" depart="468.00">
        <route edges="E23 E24 -E14 -E13"/>
    </vehicle>
    <vehicle id="235" type="Car" depart="470.00">
        <route edges="-E38 E51 E50 -E37 E17 E52 -E34 E11"/>
    </vehicle>
    <vehicle id="236" type="Car" depart="472.00">
        <route edges="-E39 -E6 E46 E26 E27 -E15 -E24 -E23"/>
    </vehicle>
    <vehicle id="237" type="Car" depart="474.00">
        <route edges="-E39 -E38 E51 E50 E49 E48 E38"/>
    </vehicle>
    <vehicle id="238" type="Car" depart="476.00">
        <route edges="E14 E15 E16 -E36 E22"/>